8500-Node/IEEE8500_Reduced_VLL_Node.Txt

LINE-LINE VOLTAGES BY BUS & NODE

Bus                  Node    VLN (kV)   Angle      pu     Base kV 

SOURCEBUS .......... 1-2     120.75 /_   30.0      1.05   115.000
   -                 2-3     120.75 /_  -90.0      1.05   115.000
   -                 3-1     120.75 /_  150.0      1.05   115.000
_HVMV_SUB_LSB ...... 1-2     13.053 /_   -4.0    1.0468    12.470
   -                 2-3     13.069 /_ -123.9     1.048    12.470
   -                 3-1     13.084 /_  116.0    1.0493    12.470
HVMV_SUB_48332 ..... 1-2     13.053 /_   -4.0    1.0468    12.470
   -                 2-3     13.069 /_ -123.9     1.048    12.470
   -                 3-1     13.084 /_  116.0    1.0493    12.470
R20185 ............. 1-2     12.979 /_   -4.8    1.0408    12.470
   -                 2-3     13.012 /_ -124.6    1.0435    12.470
   -                 3-1     13.032 /_  115.1    1.0451    12.470
N1136663 ........... 1-2      11.44 /_  -13.5   0.91738    12.470
   -                 2-3     11.714 /_ -131.5   0.93936    12.470
   -                 3-1     11.934 /_  106.4   0.95701    12.470
M1026695 ........... 1-2      11.14 /_  -13.4   0.89333    12.470
   -                 2-3     11.489 /_ -131.7   0.92131    12.470
   -                 3-1      11.61 /_  106.0     0.931    12.470
M1142843 ........... 1-2     12.654 /_   -7.9    1.0148    12.470
   -                 2-3     12.753 /_ -127.3    1.0227    12.470
   -                 3-1     12.812 /_  112.0    1.0274    12.470
REGXFMR_190_7361 ... 1-2     12.046 /_   -9.9   0.96603    12.470
   -                 2-3     12.128 /_ -129.2    0.9726    12.470
   -                 3-1     12.203 /_  110.1   0.97859    12.470
M1125994 ........... 1-2     12.304 /_   -9.6   0.98666    12.470
   -                 2-3     12.453 /_ -128.6   0.99867    12.470
   -                 3-1     12.568 /_  110.3    1.0079    12.470
R42247 ............. 1-2     12.694 /_   -7.7     1.018    12.470
   -                 2-3     12.788 /_ -127.1    1.0255    12.470
   -                 3-1     12.844 /_  112.2      1.03    12.470
190_8593 ........... 1-2     11.547 /_  -13.2   0.92596    12.470
   -                 2-3     11.804 /_ -131.3   0.94659    12.470
   -                 3-1     12.022 /_  106.7   0.96408    12.470
M1108378 ........... 1-2      12.28 /_   -9.6   0.98475    12.470
   -                 2-3     12.436 /_ -128.6   0.99726    12.470
   -                 3-1     12.555 /_  110.3    1.0068    12.470
REGXFMR_190_8581 ... 1-2     12.045 /_  -11.0    0.9659    12.470
   -                 2-3     12.233 /_ -129.6   0.98101    12.470
   -                 3-1     12.388 /_  109.0   0.99339    12.470
190_8581 ........... 1-2     12.044 /_  -11.0   0.96582    12.470
   -                 2-3     12.232 /_ -129.6   0.98092    12.470
   -                 3-1     12.387 /_  108.9   0.99334    12.470
R42246 ............. 1-2     11.673 /_  -12.9   0.93606    12.470
   -                 2-3     11.909 /_ -131.0   0.95502    12.470
   -                 3-1     12.126 /_  107.1   0.97241    12.470
REGXFMR_190_8593 ... 1-2     11.548 /_  -13.2   0.92603    12.470
   -                 2-3     11.805 /_ -131.3   0.94665    12.470
   -                 3-1     12.023 /_  106.7   0.96413    12.470
190_7361 ........... 1-2     12.046 /_   -9.9   0.96604    12.470
   -                 2-3     12.128 /_ -129.2    0.9726    12.470
   -                 3-1     12.203 /_  110.1    0.9786    12.470
R18242 ............. 1-2     11.728 /_  -11.0   0.94049    12.470
   -                 2-3      11.88 /_ -129.9   0.95265    12.470
   -                 3-1     11.999 /_  108.9   0.96226    12.470
HVMV_SUB_HSB ....... 1-2     120.75 /_   29.4      1.05   115.000
   -                 2-3      120.8 /_  -90.6    1.0504   115.000
   -                 3-1     120.77 /_  149.3    1.0502   115.000
REGXFMR_HVMV_SUB_LSB 1-2     13.053 /_   -4.0    1.0468    12.470
   -                 2-3     13.069 /_ -123.9     1.048    12.470
   -                 3-1     13.084 /_  116.0    1.0493    12.470
